# Molecule Name
# Created by GaussView 6.0.16
#

#
#

@<TRIPOS>MOLECULE
Molecule Name
20 20
SMALL
NO_CHARGES


@<TRIPOS>ATOM
1 C1    -3.9705     0.4899     0.0003 C
2 C2    -2.6214    -0.2008    -0.0003 C
3 O3    -2.5315    -1.4274    -0.0019 O
4 N4    -1.5426     0.6376     0.0009 N
5 C5    -0.1606     0.3294     0.0005 C
6 C6     0.7370     1.4052    -0.0004 C
7 C7     2.1107     1.1917    -0.0007 C
8 C8     2.6128    -0.1110    -0.0001 C
9 C9     1.7270    -1.1871     0.0008 C
10 C10     0.3504    -0.9757     0.0011 C
11 O11     3.9564    -0.3887    -0.0003 O
12 H12    -3.9091     1.5784     0.0026 H
13 H13    -4.5285     0.1641     0.8809 H
14 H14    -4.5275     0.1677    -0.8822 H
15 H15    -1.7541     1.6249     0.0018 H
16 H16     0.3608     2.4228    -0.0009 H
17 H17     2.7876     2.0394    -0.0013 H
18 H18     2.1202    -2.1970     0.0013 H
19 H19    -0.3265    -1.8152     0.0018 H
20 H20     4.4643     0.4315    -0.0011 H
@<TRIPOS>BOND
1 1 2 1
2 1 12 1
3 1 13 1
4 1 14 1
5 2 3 2
6 2 4 1
7 4 5 1
8 4 15 1
9 5 6 1
10 5 10 2
11 6 7 2
12 6 16 1
13 7 8 1
14 7 17 1
15 8 9 2
16 8 11 1
17 9 10 1
18 9 18 1
19 10 19 1
20 11 20 1
