@<TRIPOS>MOLECULE
*****
 51 50 0 0 0
SMALL
GASTEIGER

@<TRIPOS>ATOM
      1 C           8.4314   -1.2950   -0.2116 C.3     1  UNL1       -0.0389
      2 C           7.2179   -0.6344    0.4309 C.3     1  UNL1        0.0548
      3 H           8.2802   -2.3749   -0.2931 H       1  UNL1        0.0254
      4 H           9.3279   -1.1264    0.3916 H       1  UNL1        0.0254
      5 H           8.6058   -0.8906   -1.2124 H       1  UNL1        0.0254
      6 H           7.0558   -1.0604    1.4290 H       1  UNL1        0.0591
      7 C           5.9411   -0.8096   -0.3913 C.3     1  UNL1       -0.0009
      8 O           7.4337    0.7943    0.5815 O.3     1  UNL1       -0.3920
      9 H           8.1395    0.9409    1.2217 H       1  UNL1        0.2098
     10 H           5.7722   -1.8831   -0.5201 H       1  UNL1        0.0315
     11 H           6.0866   -0.3801   -1.3896 H       1  UNL1        0.0315
     12 C           4.6934   -0.1913    0.2470 C.3     1  UNL1        0.0599
     13 H           4.6150   -0.5471    1.2848 H       1  UNL1        0.0595
     14 C           3.4076   -0.5655   -0.4917 C.3     1  UNL1       -0.0006
     15 O           4.7821    1.2513    0.2694 O.3     1  UNL1       -0.3916
     16 H           3.3083   -1.6551   -0.4671 H       1  UNL1        0.0315
     17 H           3.4846   -0.2649   -1.5431 H       1  UNL1        0.0315
     18 C           2.1431    0.0514    0.1156 C.3     1  UNL1        0.0599
     19 H           2.1306   -0.1618    1.1946 H       1  UNL1        0.0595
     20 C           0.8605   -0.5073   -0.5026 C.3     1  UNL1       -0.0006
     21 O           2.1260    1.4858   -0.0622 O.3     1  UNL1       -0.3916
     22 H           0.8436   -1.5875   -0.3279 H       1  UNL1        0.0315
     23 H           0.8735   -0.3486   -1.5873 H       1  UNL1        0.0315
     24 C          -0.4217    0.0987    0.0780 C.3     1  UNL1        0.0599
     25 H          -0.3770    0.0322    1.1750 H       1  UNL1        0.0595
     26 C          -1.6824   -0.6235   -0.3998 C.3     1  UNL1       -0.0006
     27 O          -0.5503    1.4918   -0.2857 O.3     1  UNL1       -0.3916
     28 H          -1.6128   -1.6695   -0.0852 H       1  UNL1        0.0315
     29 H          -1.7226   -0.6107   -1.4953 H       1  UNL1        0.0315
     30 C          -2.9833   -0.0345    0.1567 C.3     1  UNL1        0.0599
     31 H           5.6880    1.4771    0.5413 H       1  UNL1        0.2098
     32 H           3.0180    1.8102    0.1507 H       1  UNL1        0.2098
     33 H           0.3240    1.9001   -0.1618 H       1  UNL1        0.2098
     34 H          -2.8936    0.0465    1.2501 H       1  UNL1        0.0595
     35 C          -4.2043   -0.8971   -0.1661 C.3     1  UNL1       -0.0006
     36 O          -3.2265    1.2869   -0.3761 O.3     1  UNL1       -0.3916
     37 H          -4.0476   -1.8848    0.2788 H       1  UNL1        0.0315
     38 H          -4.2833   -1.0334   -1.2511 H       1  UNL1        0.0315
     39 C          -5.5251   -0.3295    0.3650 C.3     1  UNL1        0.0597
     40 H          -5.4022   -0.0914    1.4323 H       1  UNL1        0.0595
     41 C          -6.6901   -1.3084    0.2204 C.3     1  UNL1       -0.0035
     42 O          -5.8890    0.8846   -0.3301 O.3     1  UNL1       -0.3916
     43 H          -6.4535   -2.2108    0.7942 H       1  UNL1        0.0312
     44 H          -6.7924   -1.6057   -0.8297 H       1  UNL1        0.0312
     45 C          -8.0244   -0.7558    0.7235 C.3     1  UNL1        0.0465
     46 H          -2.3790    1.7640   -0.3510 H       1  UNL1        0.2098
     47 H          -5.0804    1.4195   -0.4054 H       1  UNL1        0.2098
     48 H          -7.9105   -0.3970    1.7563 H       1  UNL1        0.0558
     49 H          -8.7769   -1.5476    0.7318 H       1  UNL1        0.0558
     50 O          -8.5512    0.2896   -0.1040 O.3     1  UNL1       -0.3949
     51 H          -7.8032    0.8769   -0.2972 H       1  UNL1        0.2094
@<TRIPOS>BOND
     1     1     2    1
     2     1     3    1
     3     1     4    1
     4     1     5    1
     5     2     6    1
     6     2     7    1
     7     2     8    1
     8     7    10    1
     9     7    11    1
    10     7    12    1
    11     8     9    1
    12    12    13    1
    13    12    14    1
    14    12    15    1
    15    14    16    1
    16    14    17    1
    17    14    18    1
    18    15    31    1
    19    18    19    1
    20    18    20    1
    21    18    21    1
    22    20    22    1
    23    20    23    1
    24    20    24    1
    25    21    32    1
    26    24    25    1
    27    24    26    1
    28    24    27    1
    29    26    28    1
    30    26    29    1
    31    26    30    1
    32    27    33    1
    33    30    34    1
    34    30    35    1
    35    30    36    1
    36    35    37    1
    37    35    38    1
    38    35    39    1
    39    36    46    1
    40    39    40    1
    41    39    41    1
    42    39    42    1
    43    41    43    1
    44    41    44    1
    45    41    45    1
    46    42    47    1
    47    45    48    1
    48    45    49    1
    49    45    50    1
    50    50    51    1
